11
optimized with single-state CAS(8,8)/MRCI(6,6)/(aug-)cc-pVDZ
 C  -0.008788   0.071664   0.004068
 C   0.001577  -0.038233   1.532826
 C   1.554408   0.035720   1.475830
 C   1.512236   0.247860  -0.064695
 H  -0.481880   0.809035   2.019753
 H  -0.428931  -0.959870   1.923060
 H   1.992352   0.857874   2.037198
 H   2.043939  -0.889375   1.773070
 H   1.806735   1.242460  -0.400455
 H   2.026613  -0.494832  -0.673676
 O  -0.894687   0.015831  -0.843661
