11
optimized with SA(3/2)-CAS(8,8)/MRCI(6,6)/(aug-)cc-pVDZ
 C  -0.339551   0.028974  -0.236912
 C  -0.856282  -0.136431   1.112677
 C   1.586804   0.011961   0.991102
 C   1.122587   0.154734  -0.449193
 H  -1.033376   0.723759   1.752790
 H  -1.400362  -1.044086   1.369269
 H   1.785785   0.890738   1.589552
 H   1.958537  -0.936852   1.353395
 H   1.430945   1.107592  -0.890049
 H   1.526341  -0.643659  -1.080847
 O  -1.312242  -0.160993  -1.154253
