11
optimized with SA(3/2)-CAS(8,8)/MRCI(6,6)/(aug-)cc-pVDZ
 C  -2.769349   0.239133  -0.171274
 C  -2.033686  -0.909735  -0.386568
 C  -4.886535  -1.284816  -0.051645
 C  -4.507988   0.076261   0.040815
 H  -0.963137  -0.834978  -0.520236
 H  -2.526037  -1.869701  -0.422600
 H  -5.072675  -1.749275  -1.012362
 H  -4.832259  -1.939871   0.809341
 H  -4.872166   0.711011  -0.758698
 H  -4.637550   0.524817   1.018972
 O  -2.455938   1.417007  -0.090316
