11
optimized with SA(3/2)-CAS(8,8)/MRCI(6,6)/(aug-)cc-pVDZ
 C  -0.094351   0.093062  -0.076116
 C   0.081440  -0.039311   1.547540
 C   1.601180   0.019591   1.516913
 C   1.534817   0.240983   0.013363
 H  -0.451947   0.888042   1.785777
 H  -0.433024  -0.990706   1.705920
 H   1.989644   0.880753   2.042236
 H   2.087977  -0.898404   1.810362
 H   1.564790   1.277046  -0.342934
 H   1.824864  -0.555142  -0.677253
 O  -0.874043   0.034914  -0.825287
